 14
 -4.011907
  O 1.828886 -0.144118 0.031546
  H 1.354053 0.622330 0.408319
  H 1.815431 -0.897916 0.775131
  Pt 3.882890 0.155896 -0.375986
  N 3.723820 2.248373 -0.525727
  N 4.164083 -1.875418 -0.112160
  Cl 2.207620 -1.847557 2.314886
  Cl 6.223044 0.432721 -0.776529
  H 4.416165 2.526551 -1.227957
  H 2.798763 2.576258 -0.802481
  H 3.990428 2.648050 0.374073
  H 3.586491 -2.144001 0.718101
  H 3.910541 -2.415311 -0.941611
  H 5.154205 -2.019083 0.097513
 14
 -4.240226
  O 1.832512 -0.148199 0.037291
  H 1.355217 0.620640 0.407120
  H 1.819749 -0.900560 0.787198
  Pt 3.885215 0.159175 -0.374005
  N 3.726507 2.251588 -0.529105
  N 4.163542 -1.871966 -0.108118
  Cl 2.187717 -1.871868 2.309132
  Cl 6.224409 0.438683 -0.787052
  H 4.419710 2.528082 -1.231634
  H 2.801699 2.579684 -0.806646
  H 3.992612 2.653116 0.369937
  H 3.587945 -2.142820 0.722323
  H 3.905799 -2.411205 -0.936989
  H 5.153789 -2.017575 0.097667
 14
 -4.422621
  O 1.835478 -0.149723 0.043253
  H 1.356176 0.620597 0.406676
  H 1.821499 -0.902117 0.796105
  Pt 3.887408 0.161742 -0.372258
  N 3.728332 2.253838 -0.531829
  N 4.164090 -1.869503 -0.104678
  Cl 2.170495 -1.891337 2.303361
  Cl 6.225595 0.443011 -0.796569
  H 4.421990 2.528846 -1.234362
  H 2.803635 2.581626 -0.810135
  H 3.993963 2.657146 0.366886
  H 3.590094 -2.142844 0.726055
  H 3.902654 -2.407607 -0.932815
  H 5.155012 -2.016902 0.097428
 14
 -4.575965
  O 1.838629 -0.149667 0.048859
  H 1.356916 0.621583 0.406748
  H 1.822315 -0.903131 0.802729
  Pt 3.889445 0.163993 -0.370346
  N 3.729695 2.255491 -0.534013
  N 4.165092 -1.867468 -0.101122
  Cl 2.155576 -1.908951 2.297011
  Cl 6.226196 0.446573 -0.805760
  H 4.423821 2.529060 -1.236639
  H 2.805081 2.582841 -0.813126
  H 3.994776 2.660288 0.364263
  H 3.592479 -2.142801 0.729979
  H 3.900070 -2.404702 -0.928721
  H 5.156330 -2.016335 0.097256
 14
 -4.708854
  O 1.841513 -0.148797 0.054448
  H 1.357559 0.622959 0.407621
  H 1.822244 -0.903892 0.807977
  Pt 3.891357 0.165703 -0.368537
  N 3.730650 2.257115 -0.536031
  N 4.166308 -1.865752 -0.097819
  Cl 2.142499 -1.924858 2.290399
  Cl 6.226853 0.448502 -0.814101
  H 4.425236 2.529401 -1.238562
  H 2.806139 2.583818 -0.816113
  H 3.995026 2.663409 0.361935
  H 3.594779 -2.142764 0.733520
  H 3.898123 -2.402130 -0.924830
  H 5.158134 -2.015940 0.097209
 14
 -4.826398
  O 1.844498 -0.147223 0.059734
  H 1.358244 0.624760 0.408863
  H 1.821767 -0.904380 0.812084
  Pt 3.893135 0.167378 -0.366746
  N 3.731414 2.258309 -0.537754
  N 4.167693 -1.864207 -0.094575
  Cl 2.130717 -1.939608 2.283712
  Cl 6.227138 0.450101 -0.822088
  H 4.426512 2.529398 -1.240160
  H 2.806939 2.584219 -0.818931
  H 3.994945 2.666023 0.359845
  H 3.597087 -2.142614 0.737027
  H 3.896506 -2.399822 -0.921123
  H 5.159826 -2.015560 0.097231
 14
 -4.931777
  O 1.847235 -0.145394 0.065013
  H 1.358942 0.626601 0.410702
  H 1.820867 -0.904822 0.815567
  Pt 3.894824 0.168731 -0.365081
  N 3.731991 2.259552 -0.539446
  N 4.169076 -1.862808 -0.091566
  Cl 2.120118 -1.953341 2.276988
  Cl 6.227548 0.450764 -0.829405
  H 4.427661 2.529588 -1.241549
  H 2.807599 2.584531 -0.821909
  H 3.994484 2.668752 0.357884
  H 3.599149 -2.142450 0.740148
  H 3.895272 -2.397686 -0.917656
  H 5.161654 -2.015243 0.097428
 14
 -5.027062
  O 1.849999 -0.143248 0.070077
  H 1.359751 0.628645 0.412833
  H 1.819816 -0.905119 0.818460
  Pt 3.896403 0.170092 -0.363481
  N 3.732482 2.260519 -0.540988
  N 4.170473 -1.861499 -0.088657
  Cl 2.110361 -1.966355 2.270332
  Cl 6.227720 0.451371 -0.836395
  H 4.428809 2.529578 -1.242727
  H 2.808166 2.584474 -0.824882
  H 3.993782 2.671169 0.356050
  H 3.601095 -2.142226 0.743144
  H 3.894261 -2.395706 -0.914389
  H 5.163303 -2.014919 0.097739
 14
 -5.113864
  O 1.852561 -0.141033 0.075113
  H 1.360618 0.630674 0.415381
  H 1.818576 -0.905399 0.821052
  Pt 3.897907 0.171250 -0.362002
  N 3.732875 2.261516 -0.542527
  N 4.171813 -1.860284 -0.085948
  Cl 2.101411 -1.978670 2.263737
  Cl 6.227988 0.451465 -0.842888
  H 4.429934 2.529714 -1.243746
  H 2.808680 2.584373 -0.828029
  H 3.992796 2.673659 0.354293
  H 3.602783 -2.142024 0.745813
  H 3.893530 -2.393849 -0.911353
  H 5.164950 -2.014618 0.098220
 14
 -5.187489
  O 1.854898 -0.138874 0.079630
  H 1.361513 0.632625 0.417950
  H 1.817389 -0.905585 0.823170
  Pt 3.899212 0.172335 -0.360714
  N 3.733194 2.262282 -0.543876
  N 4.173020 -1.859208 -0.083552
  Cl 2.093693 -1.989566 2.257757
  Cl 6.228111 0.451520 -0.848609
  H 4.431021 2.529749 -1.244553
  H 2.809132 2.584075 -0.830987
  H 3.991702 2.675781 0.352743
  H 3.604206 -2.141819 0.748124
  H 3.893027 -2.392234 -0.908742
  H 5.166303 -2.014307 0.098777
 14
 -5.255668
  O 1.857081 -0.136792 0.084080
  H 1.362431 0.634463 0.420707
  H 1.816149 -0.905809 0.825148
  Pt 3.900462 0.173329 -0.359497
  N 3.733481 2.263106 -0.545210
  N 4.174151 -1.858154 -0.081278
  Cl 2.086491 -2.000006 2.251877
  Cl 6.228265 0.451201 -0.854107
  H 4.432135 2.529900 -1.245229
  H 2.809590 2.583810 -0.834060
  H 3.990446 2.677971 0.351266
  H 3.605418 -2.141605 0.750218
  H 3.892703 -2.390667 -0.906285
  H 5.167620 -2.013973 0.099488
 14
 -5.319081
  O 1.859221 -0.134608 0.088414
  H 1.363442 0.636420 0.423594
  H 1.814918 -0.905924 0.826962
  Pt 3.901645 0.174295 -0.358346
  N 3.733735 2.263785 -0.546484
  N 4.175258 -1.857175 -0.079095
  Cl 2.079662 -2.010058 2.246101
  Cl 6.228299 0.450997 -0.859419
  H 4.433287 2.529961 -1.245786
  H 2.810028 2.583380 -0.837168
  H 3.989044 2.679991 0.349855
  H 3.606527 -2.141441 0.752181
  H 3.892535 -2.389205 -0.903979
  H 5.168821 -2.013645 0.100287
 14
 -5.378131
  O 1.861233 -0.132435 0.092710
  H 1.364516 0.638370 0.426664
  H 1.813666 -0.906011 0.828701
  Pt 3.902776 0.175159 -0.357271
  N 3.733950 2.264461 -0.547758
  N 4.176302 -1.856250 -0.077033
  Cl 2.073217 -2.019730 2.240413
  Cl 6.228344 0.450670 -0.864490
  H 4.434462 2.530073 -1.246240
  H 2.810478 2.582926 -0.840384
  H 3.987491 2.682011 0.348492
  H 3.607467 -2.141320 0.753941
  H 3.892530 -2.387827 -0.901834
  H 5.169989 -2.013321 0.101206
 14
 -5.433423
  O 1.863199 -0.130227 0.096905
  H 1.365666 0.640379 0.429830
  H 1.812438 -0.906036 0.830335
  Pt 3.903845 0.175998 -0.356255
  N 3.734142 2.265041 -0.548983
  N 4.177318 -1.855373 -0.075050
  Cl 2.067080 -2.029064 2.234824
  Cl 6.228322 0.450402 -0.869424
  H 4.435682 2.530128 -1.246588
  H 2.810917 2.582367 -0.843635
  H 3.985814 2.683901 0.347188
  H 3.608298 -2.141229 0.755585
  H 3.892655 -2.386530 -0.899825
  H 5.171045 -2.012983 0.102210
 14
 -5.485289
  O 1.865050 -0.128050 0.101061
  H 1.366873 0.642372 0.433134
  H 1.811208 -0.906038 0.831927
  Pt 3.904864 0.176763 -0.355311
  N 3.734305 2.265617 -0.550206
  N 4.178277 -1.854541 -0.073174
  Cl 2.061246 -2.038062 2.229327
  Cl 6.228300 0.450032 -0.874166
  H 4.436930 2.530220 -1.246840
  H 2.811367 2.581795 -0.846974
  H 3.984012 2.685780 0.345931
  H 3.608986 -2.141174 0.757049
  H 3.892924 -2.385293 -0.897954
  H 5.172079 -2.012646 0.103315
