 14
 -3.800042
  O 1.838588 -0.173338 0.040587
  H 1.270707 0.559911 0.339614
  H 1.842462 -0.921485 0.777782
  Pt 3.870927 0.164534 -0.375857
  N 3.735497 2.259175 -0.535704
  N 4.163484 -1.868429 -0.097179
  Cl 2.222278 -1.824346 2.365254
  Cl 6.208533 0.444192 -0.802342
  H 4.432239 2.524973 -1.235591
  H 2.812280 2.605039 -0.799771
  H 4.003416 2.645660 0.370899
  H 3.586310 -2.147038 0.734035
  H 3.916671 -2.406000 -0.930092
  H 5.154757 -2.007518 0.112185
 14
 -4.155899
  O 1.837707 -0.173158 0.042587
  H 1.274535 0.565004 0.340896
  H 1.848994 -0.912634 0.796476
  Pt 3.872273 0.166535 -0.374483
  N 3.734800 2.260734 -0.537788
  N 4.165702 -1.866012 -0.093685
  Cl 2.202178 -1.851973 2.351568
  Cl 6.208712 0.441786 -0.810991
  H 4.432616 2.525235 -1.237672
  H 2.812492 2.605060 -0.805904
  H 4.003344 2.650394 0.367806
  H 3.591064 -2.147341 0.737906
  H 3.915753 -2.404388 -0.925075
  H 5.157977 -2.003913 0.112180
 14
 -4.383686
  O 1.837571 -0.172695 0.045829
  H 1.278117 0.569538 0.342234
  H 1.850997 -0.908038 0.808489
  Pt 3.874184 0.167927 -0.372650
  N 3.734397 2.262098 -0.539120
  N 4.168256 -1.864318 -0.090439
  Cl 2.185346 -1.871340 2.340406
  Cl 6.208840 0.439832 -0.819596
  H 4.432631 2.525834 -1.238865
  H 2.812622 2.604446 -0.810211
  H 4.003069 2.654734 0.365335
  H 3.596105 -2.148132 0.741535
  H 3.914862 -2.402806 -0.920547
  H 5.161151 -2.001750 0.111422
 14
 -4.551114
  O 1.838348 -0.171629 0.049561
  H 1.281893 0.573690 0.344013
  H 1.850739 -0.906128 0.816233
  Pt 3.876159 0.169190 -0.370681
  N 3.734311 2.263232 -0.540290
  N 4.170388 -1.862782 -0.087194
  Cl 2.171335 -1.888285 2.330842
  Cl 6.208895 0.439021 -0.828023
  H 4.432952 2.526272 -1.239914
  H 2.812821 2.603707 -0.813901
  H 4.002672 2.658567 0.363063
  H 3.600148 -2.148065 0.745274
  H 3.913602 -2.401296 -0.916016
  H 5.163884 -2.000164 0.110853
 14
 -4.686849
  O 1.839647 -0.169972 0.053531
  H 1.285572 0.577762 0.346285
  H 1.848915 -0.905611 0.821300
  Pt 3.878104 0.170320 -0.368745
  N 3.734349 2.264157 -0.541368
  N 4.172389 -1.861432 -0.084023
  Cl 2.159242 -1.903406 2.322272
  Cl 6.208974 0.438756 -0.836183
  H 4.433404 2.526536 -1.240850
  H 2.813002 2.602861 -0.817223
  H 4.002067 2.662003 0.361056
  H 3.603700 -2.147684 0.748972
  H 3.912360 -2.399970 -0.911668
  H 5.166423 -1.998988 0.110464
 14
 -4.803598
  O 1.841303 -0.167894 0.057618
  H 1.289187 0.581728 0.349020
  H 1.846234 -0.905777 0.824732
  Pt 3.879989 0.171323 -0.366893
  N 3.734445 2.264920 -0.542432
  N 4.174252 -1.860197 -0.080962
  Cl 2.148546 -1.917397 2.314341
  Cl 6.209050 0.438834 -0.843960
  H 4.433977 2.526676 -1.241706
  H 2.813184 2.601928 -0.820409
  H 4.001219 2.665112 0.359196
  H 3.606791 -2.147077 0.752540
  H 3.911213 -2.398772 -0.907550
  H 5.168759 -1.998078 0.110285
 14
 -4.907302
  O 1.843173 -0.165523 0.061758
  H 1.292708 0.585612 0.352145
  H 1.843106 -0.906213 0.827178
  Pt 3.881799 0.172225 -0.365161
  N 3.734555 2.265555 -0.543508
  N 4.176014 -1.859065 -0.078038
  Cl 2.138888 -1.930516 2.306832
  Cl 6.209113 0.439100 -0.851322
  H 4.434632 2.526726 -1.242467
  H 2.813357 2.600919 -0.823572
  H 4.000129 2.667953 0.357454
  H 3.609515 -2.146386 0.755910
  H 3.910230 -2.397678 -0.903685
  H 5.170930 -1.997378 0.110297
 14
 -5.001145
  O 1.845147 -0.162972 0.065918
  H 1.296128 0.589392 0.355577
  H 1.839798 -0.906713 0.829036
  Pt 3.883527 0.173050 -0.363554
  N 3.734658 2.266094 -0.544607
  N 4.177681 -1.858015 -0.075260
  Cl 2.130044 -1.942980 2.299638
  Cl 6.209153 0.439466 -0.858264
  H 4.435390 2.526724 -1.243156
  H 2.813526 2.599858 -0.826777
  H 3.998815 2.670579 0.355803
  H 3.611911 -2.145666 0.759055
  H 3.909425 -2.396652 -0.900072
  H 5.172946 -1.996834 0.110485
 14
 -5.086941
  O 1.847171 -0.160328 0.070074
  H 1.299450 0.593067 0.359233
  H 1.836482 -0.907172 0.830563
  Pt 3.885172 0.173806 -0.362066
  N 3.734737 2.266569 -0.545728
  N 4.179257 -1.857028 -0.072625
  Cl 2.121844 -1.954866 2.292689
  Cl 6.209179 0.439842 -0.864821
  H 4.436222 2.526702 -1.243745
  H 2.813709 2.598754 -0.830050
  H 3.997283 2.673031 0.354222
  H 3.614032 -2.144966 0.761949
  H 3.908797 -2.395681 -0.896714
  H 5.174814 -1.996399 0.110839
 14
 -5.159901
  O 1.849039 -0.157845 0.073903
  H 1.302422 0.596375 0.362773
  H 1.833499 -0.907520 0.831815
  Pt 3.886620 0.174461 -0.360805
  N 3.734791 2.266955 -0.546788
  N 4.180636 -1.856163 -0.070329
  Cl 2.114761 -1.965405 2.286473
  Cl 6.209187 0.440170 -0.870533
  H 4.437067 2.526661 -1.244209
  H 2.813878 2.597718 -0.833163
  H 3.995692 2.675162 0.352827
  H 3.615749 -2.144360 0.764397
  H 3.908384 -2.394810 -0.893841
  H 5.176423 -1.996067 0.111300
 14
 -5.227717
  O 1.850899 -0.155367 0.077713
  H 1.305327 0.599586 0.366419
  H 1.830651 -0.907795 0.832997
  Pt 3.887997 0.175080 -0.359639
  N 3.734831 2.267309 -0.547866
  N 4.181935 -1.855337 -0.068145
  Cl 2.108064 -1.975575 2.280410
  Cl 6.209188 0.440488 -0.875973
  H 4.437970 2.526616 -1.244577
  H 2.814068 2.596672 -0.836356
  H 3.993956 2.677184 0.351469
  H 3.617253 -2.143791 0.766647
  H 3.908104 -2.393961 -0.891158
  H 5.177904 -1.995777 0.111879
 14
 -5.291040
  O 1.852718 -0.152907 0.081504
  H 1.308141 0.602717 0.370146
  H 1.827938 -0.907991 0.834148
  Pt 3.889308 0.175671 -0.358564
  N 3.734851 2.267632 -0.548953
  N 4.183177 -1.854542 -0.066071
  Cl 2.101700 -1.985397 2.274503
  Cl 6.209185 0.440766 -0.881163
  H 4.438942 2.526568 -1.244876
  H 2.814274 2.595624 -0.839619
  H 3.992087 2.679115 0.350163
  H 3.618587 -2.143277 0.768707
  H 3.907960 -2.393136 -0.888666
  H 5.179279 -1.995513 0.112562
 14
 -5.350286
  O 1.854506 -0.150485 0.085272
  H 1.310897 0.605753 0.373927
  H 1.825394 -0.908120 0.835299
  Pt 3.890562 0.176240 -0.357565
  N 3.734853 2.267937 -0.550052
  N 4.184338 -1.853778 -0.064100
  Cl 2.095640 -1.994909 2.268737
  Cl 6.209172 0.441014 -0.886121
  H 4.439969 2.526530 -1.245094
  H 2.814505 2.594579 -0.842961
  H 3.990098 2.680967 0.348894
  H 3.619736 -2.142803 0.770582
  H 3.907923 -2.392319 -0.886342
  H 5.180553 -1.995275 0.113345
 14
 -5.405884
  O 1.856248 -0.148099 0.089015
  H 1.313576 0.608715 0.377753
  H 1.823005 -0.908184 0.836467
  Pt 3.891758 0.176786 -0.356641
  N 3.734841 2.268219 -0.551153
  N 4.185443 -1.853041 -0.062227
  Cl 2.089847 -2.004105 2.263101
  Cl 6.209157 0.441220 -0.890880
  H 4.441053 2.526495 -1.245233
  H 2.814749 2.593538 -0.846371
  H 3.987998 2.682739 0.347669
  H 3.620733 -2.142389 0.772291
  H 3.908003 -2.391519 -0.884187
  H 5.181737 -1.995044 0.114217
 14
 -5.458141
  O 1.857948 -0.145755 0.092728
  H 1.316193 0.611600 0.381607
  H 1.820770 -0.908193 0.837653
  Pt 3.892900 0.177313 -0.355785
  N 3.734812 2.268487 -0.552257
  N 4.186489 -1.852331 -0.060443
  Cl 2.084297 -2.013016 2.257598
  Cl 6.209139 0.441386 -0.895450
  H 4.442185 2.526467 -1.245296
  H 2.815013 2.592501 -0.849841
  H 3.985799 2.684447 0.346481
  H 3.621593 -2.142018 0.773840
  H 3.908184 -2.390734 -0.882183
  H 5.182827 -1.994824 0.115168
