 16
-302.722719 -302.808812 -302.722750
C 0.962054 -0.151536 -0.268608
H 2.075689 -0.168791 -0.370413
H 0.553696 -0.250970 -1.274631
H 0.700085 -1.009831 0.352085
H 0.679733 0.793226 0.194992
Pt 3.929427 0.055743 -0.597900
N 2.650296 -0.202020 2.621842
N 5.892939 0.206115 -1.112883
Cl 3.935389 2.440610 -0.176223
Cl 4.089856 -2.324732 -1.011282
H 2.500752 -1.152789 2.343957
H 3.051593 0.000833 3.517614
H 2.446373 0.550331 1.993681
H 6.152166 1.193423 -1.028641
H 6.441459 -0.381902 -0.483468
H 5.982959 -0.121665 -2.075320

