 14
-337.090430 -338.684437 -338.711271
O 0.497210 -0.048929 0.053346
H -0.261633 0.540648 -0.113410
H 0.222074 -0.747146 0.675562
Pt 4.422731 0.014235 -0.049479
N 4.176643 2.068213 0.081846
N 4.633442 -2.046784 -0.190956
Cl 4.541955 0.049162 -2.503272
Cl 4.153859 -0.181952 2.391516
H 4.189639 2.310628 1.075363
H 4.929307 2.535339 -0.423205
H 3.274638 2.308491 -0.333366
H 4.632391 -2.274905 -1.187675
H 5.512493 -2.325389 0.243718
H 3.853183 -2.492842 0.290866

