 14
-338.648972 -338.696193 -338.653744
O 1.521668 -0.509701 0.078784
H 1.473240 -0.556415 1.062181
H 1.234452 -1.356407 -0.311941
Pt 3.832891 -0.465798 -0.036022
N 2.825678 1.976047 -0.069664
N 5.784323 -1.119568 -0.077077
Cl 4.054286 -0.255399 -2.450958
Cl 3.605290 -0.823339 2.371159
H 2.673135 2.340359 0.860469
H 3.546097 2.449104 -0.596599
H 1.988925 1.771515 -0.595684
H 6.040812 -1.157841 -1.067285
H 6.377107 -0.462501 0.431258
H 5.832297 -2.039651 0.359685

