 14
-338.670595 -338.678838 -338.689284
O 1.576725 -0.464390 0.288506
H 0.900645 0.153717 0.623080
H 1.515822 -0.578054 -0.709773
Pt 3.910082 0.070311 0.186217
N 3.739815 2.148900 0.150937
N 4.207254 -1.971169 0.108677
Cl 2.710963 -0.502946 -2.361567
Cl 6.129991 0.398417 1.115226
H 4.484410 2.501906 0.756176
H 3.904320 2.436398 -0.815597
H 2.831004 2.486183 0.465305
H 3.749282 -2.257120 -0.764497
H 5.211977 -2.145247 0.072105
H 3.794291 -2.434816 0.917492

