 14
-338.670413 -338.678887 -338.688255
O 1.582112 -0.440199 -0.302660
H 0.884247 0.155710 -0.630617
H 1.523482 -0.582999 0.693175
Pt 3.914976 0.073404 -0.184142
N 3.759342 2.153212 -0.144154
N 4.185585 -1.972706 -0.119972
Cl 2.699587 -0.520806 2.352467
Cl 6.146307 0.376070 -1.087702
H 4.437441 2.508372 -0.821664
H 2.819463 2.482176 -0.361418
H 4.019974 2.446417 0.798857
H 3.772224 -2.246391 0.779501
H 3.713114 -2.425383 -0.900902
H 5.187347 -2.165755 -0.143801

