 16
-302.718696 -302.807158 -302.762484
C 1.180958 -0.214495 0.084333
H 2.129193 -0.089430 -1.053360
H 0.514517 -0.681779 -0.648816
H 1.235892 -0.847592 0.970948
H 0.804871 0.773870 0.348454
Pt 3.455340 0.021410 -0.090052
N 3.451276 2.090657 0.038715
N 3.823793 -2.033979 -0.038620
Cl 4.031321 0.261251 2.505886
Cl 5.751552 0.205540 -1.080783
H 4.140246 2.430505 -0.634334
H 2.548524 2.546354 -0.084995
H 3.789289 2.207332 1.006778
H 3.395103 -2.445496 0.790307
H 3.537197 -2.515685 -0.889484
H 4.845109 -2.064662 0.044945

