 16
-302.715192 -302.808252 -302.759662
C 1.016901 -1.368835 0.322329
H 1.630242 0.056968 -0.108450
H 0.425563 -1.381868 -0.592793
H 1.353370 -2.378786 0.565565
H 0.497900 -0.923562 1.169447
Pt 3.045669 -0.604721 0.080483
N 4.136244 2.303736 -0.185479
N 5.187041 -0.747316 0.142487
Cl 3.141239 -0.029344 2.442956
Cl 3.102670 -1.204104 -2.265449
H 3.839523 2.548153 -1.120399
H 3.436409 2.455565 0.528882
H 5.045175 2.678920 0.056160
H 5.460984 -0.321431 1.027349
H 5.417961 -1.739394 0.122705
H 5.563525 -0.242130 -0.655369

