 16
-302.722536 -302.808365 -302.723462
C 0.417942 -0.514280 -0.036434
H 1.504321 -0.495794 -0.273479
H -0.097215 -0.309953 -0.977134
H 0.153877 -1.495421 0.357505
H 0.201117 0.258640 0.703103
Pt 3.590554 -0.608786 -0.039961
N 2.336547 2.391880 0.195263
N 5.477224 -1.359910 -0.232626
Cl 3.304262 -0.866651 -2.434038
Cl 3.943296 -0.207228 2.320507
H 2.178491 2.230334 1.173387
H 3.070716 3.014314 -0.086533
H 1.976507 1.742853 -0.478586
H 5.738706 -1.271285 -1.217640
H 6.089270 -0.821824 0.383141
H 5.467293 -2.340595 0.051957

