 11
-260.605138 -262.297782 -262.198764
Pt -0.441346 1.060832 -0.059856
N 0.530003 -4.841678 0.030464
N -0.057469 3.026244 0.035756
Cl -2.784645 1.620021 -0.081248
Cl 1.873817 0.433862 -0.057306
H 1.488574 -4.552048 0.100368
H 0.090839 -5.208922 0.855075
H 0.211129 -5.193463 -0.853991
H -0.967747 3.497148 -0.018120
H 0.408531 3.228481 0.922130
H 0.540491 3.284355 -0.751461

