 16
-302.727185 -302.808388 -302.728065
C 1.054826 0.014182 0.603077
H 1.081143 0.051103 -0.484884
H 0.113656 -0.436299 0.929853
H 1.839794 -0.682823 0.999779
H 1.168221 1.009107 1.032441
Pt 3.820954 -0.273081 0.705151
N 3.075471 0.545639 -2.022812
N 5.822359 -0.440061 1.073662
Cl 3.972769 1.926040 1.725213
Cl 3.808712 -2.482952 -0.307794
H 2.875026 -0.444499 -2.054308
H 2.307131 1.148257 -1.770032
H 3.627879 0.885302 -2.797651
H 6.126800 0.475247 1.418155
H 5.975550 -1.169106 1.771025
H 6.290526 -0.692618 0.202224

