 16
-302.729807 -302.808840 -302.731722
C 1.266339 0.267610 -0.446848
H 2.114816 -0.199146 0.147570
H 1.387382 0.282740 -1.529653
H 0.468942 -0.433024 -0.181909
H 1.082314 1.265905 -0.056941
Pt 3.852140 0.166028 -0.489575
N 2.289742 -0.699074 2.568729
N 5.799468 0.214516 -1.090842
Cl 3.973015 -2.229550 -0.917826
Cl 3.904529 2.565036 -0.150391
H 1.841281 0.140287 2.902361
H 1.668446 -1.431531 2.261221
H 3.074118 -1.016992 3.116116
H 6.059828 -0.762686 -1.258523
H 5.853723 0.763217 -1.950263
H 6.380663 0.641558 -0.368315

