 16
-302.717295 -302.808967 -302.762355
C 1.392130 -0.229731 0.866413
H 1.854429 0.010956 -0.535246
H 0.496047 -0.653658 0.402997
H 1.786652 -0.933298 1.599410
H 1.157823 0.719379 1.347220
Pt 3.451201 0.052761 -0.163565
N 3.534191 2.125458 -0.132257
N 3.785426 -2.007954 -0.210830
Cl 4.990036 0.078018 -2.178276
Cl 5.228987 0.266974 1.748889
H 4.164292 2.294119 0.662926
H 3.994119 2.382058 -1.010797
H 2.648957 2.616388 -0.023192
H 3.247842 -2.466331 -0.945192
H 4.781468 -2.047850 -0.444528
H 3.620370 -2.435200 0.699685

