 16
-302.727248 -302.808061 -302.727611
C 1.098432 -0.833257 -0.116555
H 2.066622 -0.226966 -0.060014
H 0.935516 -1.144459 -1.145460
H 1.029139 -1.662325 0.583853
H 0.407889 -0.036776 0.176176
Pt 3.656889 -1.099012 -0.006404
N 2.358853 4.288703 0.004676
N 5.642479 -1.548648 0.028857
Cl 3.760010 -0.937942 2.410164
Cl 3.719674 -1.333316 -2.415680
H 1.785115 4.516961 -0.788541
H 1.981727 3.621206 0.654661
H 2.891691 5.042137 0.403877
H 5.926645 -1.576997 1.012482
H 5.794961 -2.445607 -0.434326
H 6.140848 -0.815945 -0.478694

