 16
-302.717973 -302.807158 -302.763823
C 1.196071 -0.193387 0.036279
H 2.186059 -0.119865 -1.083332
H 0.490907 -0.439432 -0.764511
H 1.178120 -0.988365 0.781568
H 0.919063 0.760059 0.485292
Pt 3.486847 0.008331 -0.088900
N 3.477092 2.079013 0.013385
N 3.814438 -2.048638 0.061744
Cl 4.022709 0.286311 2.499380
Cl 5.766179 0.197007 -1.117853
H 4.172040 2.417202 -0.655470
H 2.575380 2.530979 -0.129293
H 3.802514 2.205594 0.984443
H 3.340016 -2.401246 0.893202
H 3.543791 -2.567688 -0.771545
H 4.828754 -2.103537 0.185584

