 14
-338.583898 -338.676443 -338.584344
O 0.764667 0.757341 -1.205192
H 0.493747 1.464731 -0.591371
H -0.010019 0.481505 -1.728715
Pt 4.927443 -1.060009 -1.811859
N 4.600231 4.225557 -0.145206
N 5.560258 -2.804723 -2.584293
Cl 2.743535 -2.051691 -1.653232
Cl 7.127936 -0.096177 -1.960436
H 5.577288 4.315441 -0.346900
H 3.932804 4.344259 -0.879218
H 4.310465 3.858609 0.738934
H 4.742554 -3.425444 -2.589299
H 5.906158 -2.635883 -3.531490
H 6.308504 -3.175189 -1.999557

