 16
-302.675605 -302.807117 -302.746805
C 0.748257 -0.227395 0.631617
H 2.386900 -0.126285 0.178173
H 0.755124 0.214035 -0.359235
H 0.133939 -1.113450 0.700262
H 0.667509 0.466420 1.457674
Pt 3.915050 0.159928 -0.324978
N 3.729995 2.246081 -0.408418
N 4.160831 -1.888097 -0.122184
Cl 1.973842 -1.711354 2.191867
Cl 6.294908 0.488285 -0.988258
H 4.484548 2.546099 -1.032388
H 2.826082 2.568644 -0.747146
H 3.905293 2.603002 0.532040
H 3.582323 -2.162758 0.687315
H 3.869530 -2.384515 -0.964116
H 5.153239 -2.057698 0.049397

