 16
-302.731564 -302.808517 -302.761390
C 0.918351 -0.133008 0.098874
H 1.813502 -0.353984 -0.944618
H 0.242914 -0.188010 -0.763871
H 0.736320 -1.008488 0.723129
H 0.673969 0.784113 0.637361
Pt 3.160746 0.075502 0.258005
N 3.037569 2.169692 0.329788
N 3.474110 -1.973110 0.073306
Cl 2.071057 -1.236471 -2.602075
Cl 5.480926 0.354552 0.903347
H 3.688474 2.473449 1.057256
H 3.360799 2.509729 -0.577344
H 2.098307 2.521043 0.512617
H 3.037659 -2.212881 -0.839597
H 4.486018 -2.109548 0.030342
H 3.088967 -2.517022 0.845294

