 16
-302.730701 -302.808249 -302.731388
C 1.196796 -0.596958 0.240685
H 2.003334 -0.320903 -0.502017
H 0.361788 -0.801062 -0.436339
H 1.391201 -1.476280 0.852259
H 1.027354 0.278490 0.860910
Pt 3.813222 -0.749127 -0.040450
N 2.814150 2.380394 0.142811
N 5.785815 -1.264230 -0.031448
Cl 3.918262 -1.011146 -2.456738
Cl 3.954841 -0.458459 2.367850
H 3.085511 2.257054 1.105988
H 3.558165 2.612919 -0.494943
H 1.934736 2.847437 -0.022392
H 6.063457 -1.343094 -1.014310
H 6.322333 -0.547920 0.459760
H 5.879540 -2.158892 0.450430

