 16
-302.725476 -302.808412 -302.732475
C 1.106355 0.087509 0.498759
H 1.001023 0.324001 -0.559308
H 0.208055 -0.423696 0.854878
H 1.929280 -0.658172 0.669669
H 1.287345 0.992729 1.075958
Pt 3.942595 -0.290578 0.632373
N 3.124322 0.584839 -2.211608
N 5.895301 -0.394940 1.222356
Cl 4.065086 -2.642353 0.055614
Cl 3.965996 2.078567 1.162145
H 3.038261 1.496770 -1.802685
H 3.694043 0.443648 -3.024719
H 2.557372 -0.173718 -1.886370
H 6.211152 -1.350542 1.031866
H 6.439233 0.290008 0.696242
H 5.930883 -0.188604 2.221208

