 16
-302.716729 -302.808967 -302.762531
C 1.362567 -0.284297 0.887478
H 1.827216 0.055334 -0.475166
H 0.554492 -0.841292 0.406157
H 1.805546 -0.883664 1.683009
H 0.987715 0.653705 1.299277
Pt 3.426936 0.064422 -0.120978
N 3.507535 2.137319 -0.144976
N 3.768366 -1.991325 -0.207370
Cl 4.913201 0.097222 -2.183533
Cl 5.328457 0.212124 1.658521
H 4.184464 2.342186 0.600007
H 3.914429 2.358214 -1.058354
H 2.630252 2.632225 -0.000993
H 3.506711 -2.343302 -1.127173
H 4.785076 -2.031118 -0.095458
H 3.320281 -2.517275 0.541540

