 16
-302.727966 -302.808249 -302.754465
C 1.219959 -1.481000 0.218063
H 2.010458 -1.058927 -0.464592
H 0.785386 -2.244890 -0.433696
H 1.657306 -1.925327 1.109091
H 0.469808 -0.739359 0.483980
Pt 2.990040 0.535482 0.062053
N 3.926966 2.344717 0.178328
N 5.363174 -1.274187 -0.076462
Cl 3.234871 0.661908 -2.362317
Cl 2.894519 0.565851 2.492116
H 4.318567 2.415309 1.119530
H 4.640095 2.373650 -0.551155
H 3.232647 3.074255 0.020079
H 5.233910 -1.400200 -1.069246
H 6.241739 -0.869113 0.205447
H 5.031305 -2.023113 0.511316

