 16
-301.056651 -302.808786 -302.679602
C 1.595538 -1.907284 0.421916
H 2.616191 -0.001508 -0.663859
H 1.401738 -1.662381 -0.617862
H 1.806028 -2.956827 0.583954
H 0.957094 -1.381882 1.117451
Pt 3.859822 -0.872582 -0.336967
N 2.530062 5.484308 0.666814
N 5.871566 -1.794089 -0.084395
Cl 3.370609 -1.293619 2.033372
Cl 4.403479 -0.615476 -2.653701
H 2.437741 5.417430 -0.328510
H 2.185582 4.729877 1.230392
H 3.249423 6.070627 1.045286
H 6.124996 -1.882712 0.897213
H 5.861111 -2.701347 -0.547274
H 6.496904 -1.161317 -0.581125

