 14
-338.648477 -338.695128 -338.659363
O 1.477426 -0.456429 0.006049
H 1.500700 -0.534974 -0.977646
H 1.135433 -1.282921 0.396305
Pt 3.813518 -0.491367 0.159421
N 2.870642 1.959767 -0.057044
N 5.759238 -1.155351 0.084672
Cl 4.186093 -0.116494 2.530360
Cl 3.510257 -0.949214 -2.232153
H 2.662496 2.201703 -1.016660
H 2.061595 1.861962 0.540951
H 3.616399 2.505602 0.352102
H 6.137915 -1.023187 1.026250
H 5.767914 -2.138899 -0.182364
H 6.269434 -0.601679 -0.603379

