 16
-302.723944 -302.808365 -302.729479
C 0.585783 -0.499802 0.001319
H 1.638422 -0.152913 0.160251
H 0.353419 -0.403899 -1.059061
H 0.493306 -1.532090 0.336780
H -0.017539 0.170262 0.616374
Pt 3.529535 -0.639771 0.007898
N 2.532570 2.407197 0.012485
N 5.469639 -1.262407 -0.070390
Cl 3.589991 -0.406602 -2.406695
Cl 3.584025 -0.957156 2.408424
H 2.384533 2.467040 1.001391
H 3.068345 3.106851 -0.465818
H 2.042791 1.729194 -0.535863
H 5.702484 -1.366258 -1.062305
H 6.059107 -0.558135 0.375794
H 5.534950 -2.149508 0.429817

