 16
-302.708890 -302.808252 -302.709276
C 1.608527 -0.912829 0.321974
H 2.597149 -0.017598 -0.456358
H 0.976429 -0.930217 -0.566498
H 1.636544 -1.915437 0.753950
H 1.303805 -0.180011 1.064614
Pt 3.783235 -0.941703 0.087562
N 2.645219 3.726476 -0.269513
N 5.790693 -1.600997 0.225162
Cl 4.029497 -0.057642 2.329315
Cl 3.787749 -1.872671 -2.151990
H 2.393379 4.040714 -1.188749
H 1.940278 3.270706 0.279021
H 3.373591 4.209900 0.221546
H 6.067645 -1.588877 1.207773
H 5.841931 -2.533165 -0.184708
H 6.370355 -0.958685 -0.314493

