 14
-338.670939 -338.678887 -338.688506
O 1.606292 -0.468244 -0.261659
H 0.904053 0.063829 -0.678439
H 1.524448 -0.532054 0.739129
Pt 3.921403 0.073943 -0.204578
N 3.742711 2.150812 -0.138537
N 4.189775 -1.971432 -0.117235
Cl 2.753820 -0.471500 2.369088
Cl 6.124048 0.399108 -1.168282
H 4.429601 2.523865 -0.797086
H 2.804918 2.477295 -0.367268
H 3.983472 2.425688 0.815834
H 3.816819 -2.217810 0.808199
H 3.668064 -2.435024 -0.859282
H 5.185655 -2.180390 -0.187791

