 16
-302.669801 -302.808435 -302.674722
C 1.667491 -0.782345 0.198522
H 2.243435 -0.449764 -1.602724
H 0.935772 -0.854037 -0.631144
H 1.403363 -1.581136 0.896635
H 1.555089 0.195515 0.677435
Pt 3.717083 -1.049802 -0.184916
N 3.140194 3.303073 1.114170
N 5.871825 -1.343752 -0.427856
Cl 3.140147 -0.260036 -2.668653
Cl 4.032094 -1.813201 2.047323
H 3.320644 3.095263 2.078538
H 3.775875 3.906107 0.626610
H 2.195942 3.239670 0.783111
H 6.154181 -1.250906 -1.401595
H 6.347637 -0.659014 0.157369
H 6.052470 -2.285150 -0.082135

