 14
-338.649618 -338.695081 -338.695278
O 1.540175 -0.513668 -0.138054
H 1.522855 -0.713466 -1.103557
H 1.227150 -1.280006 0.380386
Pt 3.850262 -0.465408 0.041775
N 2.837847 1.979598 0.049421
N 5.802540 -1.112986 0.115652
Cl 4.028343 -0.213388 2.456705
Cl 3.649535 -0.892628 -2.358279
H 2.741396 2.334575 -0.892249
H 1.972788 1.702646 0.492288
H 3.474209 2.491912 0.644182
H 6.047792 -1.126398 1.109767
H 5.863230 -2.044931 -0.294876
H 6.397701 -0.463504 -0.399285

