 10
-80.823181 -81.019652 -81.020641
C -0.032255 -0.101344 0.432927
H 1.276862 0.101620 -0.389993
H -0.659853 -0.246397 -0.453813
H -0.131696 -0.979104 1.082984
H -0.309437 0.811746 0.966115
C 2.832141 0.120780 -0.428127
H 1.522641 -0.099689 0.387303
H 3.455639 -0.432789 0.283533
H 2.930526 -0.342052 -1.417397
H 3.115438 1.175828 -0.461308

