 16
-302.726451 -302.808252 -302.752794
C 0.861664 -0.877886 0.325552
H 1.739026 -0.825508 -0.379114
H 0.075780 -1.253273 -0.334766
H 1.049698 -1.564191 1.148005
H 0.627049 0.117696 0.698416
Pt 3.606502 -0.685503 0.029177
N 3.629406 2.394384 -0.100848
N 5.623950 -1.001608 0.119956
Cl 3.636191 -0.681615 2.461336
Cl 3.766945 -0.653862 -2.398422
H 3.461201 2.365465 -1.093037
H 2.839161 2.549093 0.502386
H 4.500143 2.795643 0.205406
H 5.899325 -0.832230 1.090867
H 5.789908 -1.973501 -0.140512
H 6.088215 -0.372416 -0.534932

