 16
-302.732012 -302.809016 -302.761849
C 1.391754 -0.157885 -0.238282
H 2.428344 0.376707 -0.926253
H 0.972219 -0.241698 -1.248417
H 1.177269 -1.103385 0.268025
H 0.888426 0.662030 0.273713
Pt 3.541340 -0.131894 0.491148
N 3.761800 -2.189001 0.126573
N 3.529172 1.928072 0.768768
Cl 2.840126 1.705042 -2.252398
Cl 5.678610 -0.254324 1.621970
H 4.216354 -2.580093 0.954124
H 2.888769 -2.674329 -0.073383
H 4.393621 -2.270970 -0.672636
H 3.308364 2.294904 -0.183070
H 2.859156 2.251001 1.466335
H 4.472815 2.201186 1.050278

