 16
-302.724434 -302.808967 -302.752308
C 1.482187 -0.158059 0.295040
H 2.013527 -0.379872 -0.956200
H 0.626380 -0.337672 -0.388384
H 1.405215 -0.962391 1.031070
H 1.229998 0.803490 0.749850
Pt 3.696490 0.105420 0.341251
N 3.554728 2.195751 0.469859
N 4.058751 -1.933827 0.129431
Cl 2.627469 -1.069035 -2.479795
Cl 6.063472 0.422084 0.793100
H 4.256382 2.477793 1.156916
H 3.815822 2.560006 -0.447852
H 2.630422 2.538086 0.730653
H 3.596497 -2.183958 -0.761156
H 5.072926 -2.025075 0.036384
H 3.731439 -2.496013 0.913620

