 16
-302.730844 -302.809303 -302.761974
C 1.403969 -0.037392 0.251195
H 2.137218 -0.163357 -0.887140
H 0.687056 -0.635819 -0.328322
H 1.379213 -0.463716 1.260736
H 1.066740 1.000241 0.242330
Pt 3.671388 -0.060144 0.352066
N 3.537475 1.773977 1.362753
N 4.027484 -1.818999 -0.709491
Cl 2.327326 -0.075745 -2.686104
Cl 6.049436 0.058009 0.820021
H 4.295026 1.764811 2.048292
H 3.711868 2.511654 0.677533
H 2.636398 1.923119 1.815793
H 3.505170 -1.709163 -1.596936
H 5.034171 -1.824092 -0.890168
H 3.764540 -2.664454 -0.204914

